BEGIN options
  auxiliary  CONCENTRATION
  PRINT_INPUT
  PRINT_FLOWS
END options

BEGIN dimensions
  MAXBOUND  19
END dimensions

BEGIN period  1
  5 1 40       0.77610524     902.19704062      35.00000000
  6 1 40       0.77610524    1728.00000000      35.00000000
  7 1 40       0.77610524    1728.00000000      35.00000000
  8 1 40       0.77610524    1728.00000000      35.00000000
  9 1 40       0.77610524    1728.00000000      35.00000000
  10 1 40       0.77610524    1728.00000000      35.00000000
  11 1 40       0.77610524    1728.00000000      35.00000000
  12 1 40       0.77610524    1728.00000000      35.00000000
  13 1 40       0.77610524    1728.00000000      35.00000000
  14 1 40       0.77610524    1728.00000000      35.00000000
  15 1 40       0.77610524    1728.00000000      35.00000000
  16 1 40       0.77610524    1728.00000000      35.00000000
  17 1 40       0.77610524    1728.00000000      35.00000000
  18 1 40       0.77610524    1728.00000000      35.00000000
  19 1 40       0.77610524    1728.00000000      35.00000000
  20 1 40       0.77610524    1728.00000000      35.00000000
END period  1

BEGIN period  2
  4 1 40       0.80176381      60.95723975      35.00000000
  5 1 40       0.80176381    1728.00000000      35.00000000
  6 1 40       0.80176381    1728.00000000      35.00000000
  7 1 40       0.80176381    1728.00000000      35.00000000
  8 1 40       0.80176381    1728.00000000      35.00000000
  9 1 40       0.80176381    1728.00000000      35.00000000
  10 1 40       0.80176381    1728.00000000      35.00000000
  11 1 40       0.80176381    1728.00000000      35.00000000
  12 1 40       0.80176381    1728.00000000      35.00000000
  13 1 40       0.80176381    1728.00000000      35.00000000
  14 1 40       0.80176381    1728.00000000      35.00000000
  15 1 40       0.80176381    1728.00000000      35.00000000
  16 1 40       0.80176381    1728.00000000      35.00000000
  17 1 40       0.80176381    1728.00000000      35.00000000
  18 1 40       0.80176381    1728.00000000      35.00000000
  19 1 40       0.80176381    1728.00000000      35.00000000
  20 1 40       0.80176381    1728.00000000      35.00000000
END period  2

BEGIN period  3
  4 1 40       0.82653669     917.10788451      35.00000000
  5 1 40       0.82653669    1728.00000000      35.00000000
  6 1 40       0.82653669    1728.00000000      35.00000000
  7 1 40       0.82653669    1728.00000000      35.00000000
  8 1 40       0.82653669    1728.00000000      35.00000000
  9 1 40       0.82653669    1728.00000000      35.00000000
  10 1 40       0.82653669    1728.00000000      35.00000000
  11 1 40       0.82653669    1728.00000000      35.00000000
  12 1 40       0.82653669    1728.00000000      35.00000000
  13 1 40       0.82653669    1728.00000000      35.00000000
  14 1 40       0.82653669    1728.00000000      35.00000000
  15 1 40       0.82653669    1728.00000000      35.00000000
  16 1 40       0.82653669    1728.00000000      35.00000000
  17 1 40       0.82653669    1728.00000000      35.00000000
  18 1 40       0.82653669    1728.00000000      35.00000000
  19 1 40       0.82653669    1728.00000000      35.00000000
  20 1 40       0.82653669    1728.00000000      35.00000000
END period  3

BEGIN period  4
  4 1 40       0.85000000    1728.00000000      35.00000000
  5 1 40       0.85000000    1728.00000000      35.00000000
  6 1 40       0.85000000    1728.00000000      35.00000000
  7 1 40       0.85000000    1728.00000000      35.00000000
  8 1 40       0.85000000    1728.00000000      35.00000000
  9 1 40       0.85000000    1728.00000000      35.00000000
  10 1 40       0.85000000    1728.00000000      35.00000000
  11 1 40       0.85000000    1728.00000000      35.00000000
  12 1 40       0.85000000    1728.00000000      35.00000000
  13 1 40       0.85000000    1728.00000000      35.00000000
  14 1 40       0.85000000    1728.00000000      35.00000000
  15 1 40       0.85000000    1728.00000000      35.00000000
  16 1 40       0.85000000    1728.00000000      35.00000000
  17 1 40       0.85000000    1728.00000000      35.00000000
  18 1 40       0.85000000    1728.00000000      35.00000000
  19 1 40       0.85000000    1728.00000000      35.00000000
  20 1 40       0.85000000    1728.00000000      35.00000000
END period  4

BEGIN period  5
  3 1 40       0.87175229     751.75899731      35.00000000
  4 1 40       0.87175229    1728.00000000      35.00000000
  5 1 40       0.87175229    1728.00000000      35.00000000
  6 1 40       0.87175229    1728.00000000      35.00000000
  7 1 40       0.87175229    1728.00000000      35.00000000
  8 1 40       0.87175229    1728.00000000      35.00000000
  9 1 40       0.87175229    1728.00000000      35.00000000
  10 1 40       0.87175229    1728.00000000      35.00000000
  11 1 40       0.87175229    1728.00000000      35.00000000
  12 1 40       0.87175229    1728.00000000      35.00000000
  13 1 40       0.87175229    1728.00000000      35.00000000
  14 1 40       0.87175229    1728.00000000      35.00000000
  15 1 40       0.87175229    1728.00000000      35.00000000
  16 1 40       0.87175229    1728.00000000      35.00000000
  17 1 40       0.87175229    1728.00000000      35.00000000
  18 1 40       0.87175229    1728.00000000      35.00000000
  19 1 40       0.87175229    1728.00000000      35.00000000
  20 1 40       0.87175229    1728.00000000      35.00000000
END period  5

BEGIN period  6
  3 1 40       0.89142136    1431.52207156      35.00000000
  4 1 40       0.89142136    1728.00000000      35.00000000
  5 1 40       0.89142136    1728.00000000      35.00000000
  6 1 40       0.89142136    1728.00000000      35.00000000
  7 1 40       0.89142136    1728.00000000      35.00000000
  8 1 40       0.89142136    1728.00000000      35.00000000
  9 1 40       0.89142136    1728.00000000      35.00000000
  10 1 40       0.89142136    1728.00000000      35.00000000
  11 1 40       0.89142136    1728.00000000      35.00000000
  12 1 40       0.89142136    1728.00000000      35.00000000
  13 1 40       0.89142136    1728.00000000      35.00000000
  14 1 40       0.89142136    1728.00000000      35.00000000
  15 1 40       0.89142136    1728.00000000      35.00000000
  16 1 40       0.89142136    1728.00000000      35.00000000
  17 1 40       0.89142136    1728.00000000      35.00000000
  18 1 40       0.89142136    1728.00000000      35.00000000
  19 1 40       0.89142136    1728.00000000      35.00000000
  20 1 40       0.89142136    1728.00000000      35.00000000
END period  6

BEGIN period  7
  2 1 40       0.90867067     299.65828809      35.00000000
  3 1 40       0.90867067    1728.00000000      35.00000000
  4 1 40       0.90867067    1728.00000000      35.00000000
  5 1 40       0.90867067    1728.00000000      35.00000000
  6 1 40       0.90867067    1728.00000000      35.00000000
  7 1 40       0.90867067    1728.00000000      35.00000000
  8 1 40       0.90867067    1728.00000000      35.00000000
  9 1 40       0.90867067    1728.00000000      35.00000000
  10 1 40       0.90867067    1728.00000000      35.00000000
  11 1 40       0.90867067    1728.00000000      35.00000000
  12 1 40       0.90867067    1728.00000000      35.00000000
  13 1 40       0.90867067    1728.00000000      35.00000000
  14 1 40       0.90867067    1728.00000000      35.00000000
  15 1 40       0.90867067    1728.00000000      35.00000000
  16 1 40       0.90867067    1728.00000000      35.00000000
  17 1 40       0.90867067    1728.00000000      35.00000000
  18 1 40       0.90867067    1728.00000000      35.00000000
  19 1 40       0.90867067    1728.00000000      35.00000000
  20 1 40       0.90867067    1728.00000000      35.00000000
END period  7

BEGIN period  8
  2 1 40       0.92320508     801.96759096      35.00000000
  3 1 40       0.92320508    1728.00000000      35.00000000
  4 1 40       0.92320508    1728.00000000      35.00000000
  5 1 40       0.92320508    1728.00000000      35.00000000
  6 1 40       0.92320508    1728.00000000      35.00000000
  7 1 40       0.92320508    1728.00000000      35.00000000
  8 1 40       0.92320508    1728.00000000      35.00000000
  9 1 40       0.92320508    1728.00000000      35.00000000
  10 1 40       0.92320508    1728.00000000      35.00000000
  11 1 40       0.92320508    1728.00000000      35.00000000
  12 1 40       0.92320508    1728.00000000      35.00000000
  13 1 40       0.92320508    1728.00000000      35.00000000
  14 1 40       0.92320508    1728.00000000      35.00000000
  15 1 40       0.92320508    1728.00000000      35.00000000
  16 1 40       0.92320508    1728.00000000      35.00000000
  17 1 40       0.92320508    1728.00000000      35.00000000
  18 1 40       0.92320508    1728.00000000      35.00000000
  19 1 40       0.92320508    1728.00000000      35.00000000
  20 1 40       0.92320508    1728.00000000      35.00000000
END period  8

BEGIN period  9
  2 1 40       0.93477591    1201.85532872      35.00000000
  3 1 40       0.93477591    1728.00000000      35.00000000
  4 1 40       0.93477591    1728.00000000      35.00000000
  5 1 40       0.93477591    1728.00000000      35.00000000
  6 1 40       0.93477591    1728.00000000      35.00000000
  7 1 40       0.93477591    1728.00000000      35.00000000
  8 1 40       0.93477591    1728.00000000      35.00000000
  9 1 40       0.93477591    1728.00000000      35.00000000
  10 1 40       0.93477591    1728.00000000      35.00000000
  11 1 40       0.93477591    1728.00000000      35.00000000
  12 1 40       0.93477591    1728.00000000      35.00000000
  13 1 40       0.93477591    1728.00000000      35.00000000
  14 1 40       0.93477591    1728.00000000      35.00000000
  15 1 40       0.93477591    1728.00000000      35.00000000
  16 1 40       0.93477591    1728.00000000      35.00000000
  17 1 40       0.93477591    1728.00000000      35.00000000
  18 1 40       0.93477591    1728.00000000      35.00000000
  19 1 40       0.93477591    1728.00000000      35.00000000
  20 1 40       0.93477591    1728.00000000      35.00000000
END period  9

BEGIN period  10
  2 1 40       0.94318517    1492.47931131      35.00000000
  3 1 40       0.94318517    1728.00000000      35.00000000
  4 1 40       0.94318517    1728.00000000      35.00000000
  5 1 40       0.94318517    1728.00000000      35.00000000
  6 1 40       0.94318517    1728.00000000      35.00000000
  7 1 40       0.94318517    1728.00000000      35.00000000
  8 1 40       0.94318517    1728.00000000      35.00000000
  9 1 40       0.94318517    1728.00000000      35.00000000
  10 1 40       0.94318517    1728.00000000      35.00000000
  11 1 40       0.94318517    1728.00000000      35.00000000
  12 1 40       0.94318517    1728.00000000      35.00000000
  13 1 40       0.94318517    1728.00000000      35.00000000
  14 1 40       0.94318517    1728.00000000      35.00000000
  15 1 40       0.94318517    1728.00000000      35.00000000
  16 1 40       0.94318517    1728.00000000      35.00000000
  17 1 40       0.94318517    1728.00000000      35.00000000
  18 1 40       0.94318517    1728.00000000      35.00000000
  19 1 40       0.94318517    1728.00000000      35.00000000
  20 1 40       0.94318517    1728.00000000      35.00000000
END period  10

BEGIN period  11
  2 1 40       0.94828897    1668.86688182      35.00000000
  3 1 40       0.94828897    1728.00000000      35.00000000
  4 1 40       0.94828897    1728.00000000      35.00000000
  5 1 40       0.94828897    1728.00000000      35.00000000
  6 1 40       0.94828897    1728.00000000      35.00000000
  7 1 40       0.94828897    1728.00000000      35.00000000
  8 1 40       0.94828897    1728.00000000      35.00000000
  9 1 40       0.94828897    1728.00000000      35.00000000
  10 1 40       0.94828897    1728.00000000      35.00000000
  11 1 40       0.94828897    1728.00000000      35.00000000
  12 1 40       0.94828897    1728.00000000      35.00000000
  13 1 40       0.94828897    1728.00000000      35.00000000
  14 1 40       0.94828897    1728.00000000      35.00000000
  15 1 40       0.94828897    1728.00000000      35.00000000
  16 1 40       0.94828897    1728.00000000      35.00000000
  17 1 40       0.94828897    1728.00000000      35.00000000
  18 1 40       0.94828897    1728.00000000      35.00000000
  19 1 40       0.94828897    1728.00000000      35.00000000
  20 1 40       0.94828897    1728.00000000      35.00000000
END period  11

BEGIN period  12
  2 1 40       0.95000000    1728.00000000      35.00000000
  3 1 40       0.95000000    1728.00000000      35.00000000
  4 1 40       0.95000000    1728.00000000      35.00000000
  5 1 40       0.95000000    1728.00000000      35.00000000
  6 1 40       0.95000000    1728.00000000      35.00000000
  7 1 40       0.95000000    1728.00000000      35.00000000
  8 1 40       0.95000000    1728.00000000      35.00000000
  9 1 40       0.95000000    1728.00000000      35.00000000
  10 1 40       0.95000000    1728.00000000      35.00000000
  11 1 40       0.95000000    1728.00000000      35.00000000
  12 1 40       0.95000000    1728.00000000      35.00000000
  13 1 40       0.95000000    1728.00000000      35.00000000
  14 1 40       0.95000000    1728.00000000      35.00000000
  15 1 40       0.95000000    1728.00000000      35.00000000
  16 1 40       0.95000000    1728.00000000      35.00000000
  17 1 40       0.95000000    1728.00000000      35.00000000
  18 1 40       0.95000000    1728.00000000      35.00000000
  19 1 40       0.95000000    1728.00000000      35.00000000
  20 1 40       0.95000000    1728.00000000      35.00000000
END period  12

BEGIN period  13
  2 1 40       0.94828897    1668.86688182      35.00000000
  3 1 40       0.94828897    1728.00000000      35.00000000
  4 1 40       0.94828897    1728.00000000      35.00000000
  5 1 40       0.94828897    1728.00000000      35.00000000
  6 1 40       0.94828897    1728.00000000      35.00000000
  7 1 40       0.94828897    1728.00000000      35.00000000
  8 1 40       0.94828897    1728.00000000      35.00000000
  9 1 40       0.94828897    1728.00000000      35.00000000
  10 1 40       0.94828897    1728.00000000      35.00000000
  11 1 40       0.94828897    1728.00000000      35.00000000
  12 1 40       0.94828897    1728.00000000      35.00000000
  13 1 40       0.94828897    1728.00000000      35.00000000
  14 1 40       0.94828897    1728.00000000      35.00000000
  15 1 40       0.94828897    1728.00000000      35.00000000
  16 1 40       0.94828897    1728.00000000      35.00000000
  17 1 40       0.94828897    1728.00000000      35.00000000
  18 1 40       0.94828897    1728.00000000      35.00000000
  19 1 40       0.94828897    1728.00000000      35.00000000
  20 1 40       0.94828897    1728.00000000      35.00000000
END period  13

BEGIN period  14
  2 1 40       0.94318517    1492.47931131      35.00000000
  3 1 40       0.94318517    1728.00000000      35.00000000
  4 1 40       0.94318517    1728.00000000      35.00000000
  5 1 40       0.94318517    1728.00000000      35.00000000
  6 1 40       0.94318517    1728.00000000      35.00000000
  7 1 40       0.94318517    1728.00000000      35.00000000
  8 1 40       0.94318517    1728.00000000      35.00000000
  9 1 40       0.94318517    1728.00000000      35.00000000
  10 1 40       0.94318517    1728.00000000      35.00000000
  11 1 40       0.94318517    1728.00000000      35.00000000
  12 1 40       0.94318517    1728.00000000      35.00000000
  13 1 40       0.94318517    1728.00000000      35.00000000
  14 1 40       0.94318517    1728.00000000      35.00000000
  15 1 40       0.94318517    1728.00000000      35.00000000
  16 1 40       0.94318517    1728.00000000      35.00000000
  17 1 40       0.94318517    1728.00000000      35.00000000
  18 1 40       0.94318517    1728.00000000      35.00000000
  19 1 40       0.94318517    1728.00000000      35.00000000
  20 1 40       0.94318517    1728.00000000      35.00000000
END period  14

BEGIN period  15
  2 1 40       0.93477591    1201.85532872      35.00000000
  3 1 40       0.93477591    1728.00000000      35.00000000
  4 1 40       0.93477591    1728.00000000      35.00000000
  5 1 40       0.93477591    1728.00000000      35.00000000
  6 1 40       0.93477591    1728.00000000      35.00000000
  7 1 40       0.93477591    1728.00000000      35.00000000
  8 1 40       0.93477591    1728.00000000      35.00000000
  9 1 40       0.93477591    1728.00000000      35.00000000
  10 1 40       0.93477591    1728.00000000      35.00000000
  11 1 40       0.93477591    1728.00000000      35.00000000
  12 1 40       0.93477591    1728.00000000      35.00000000
  13 1 40       0.93477591    1728.00000000      35.00000000
  14 1 40       0.93477591    1728.00000000      35.00000000
  15 1 40       0.93477591    1728.00000000      35.00000000
  16 1 40       0.93477591    1728.00000000      35.00000000
  17 1 40       0.93477591    1728.00000000      35.00000000
  18 1 40       0.93477591    1728.00000000      35.00000000
  19 1 40       0.93477591    1728.00000000      35.00000000
  20 1 40       0.93477591    1728.00000000      35.00000000
END period  15

BEGIN period  16
  2 1 40       0.92320508     801.96759096      35.00000000
  3 1 40       0.92320508    1728.00000000      35.00000000
  4 1 40       0.92320508    1728.00000000      35.00000000
  5 1 40       0.92320508    1728.00000000      35.00000000
  6 1 40       0.92320508    1728.00000000      35.00000000
  7 1 40       0.92320508    1728.00000000      35.00000000
  8 1 40       0.92320508    1728.00000000      35.00000000
  9 1 40       0.92320508    1728.00000000      35.00000000
  10 1 40       0.92320508    1728.00000000      35.00000000
  11 1 40       0.92320508    1728.00000000      35.00000000
  12 1 40       0.92320508    1728.00000000      35.00000000
  13 1 40       0.92320508    1728.00000000      35.00000000
  14 1 40       0.92320508    1728.00000000      35.00000000
  15 1 40       0.92320508    1728.00000000      35.00000000
  16 1 40       0.92320508    1728.00000000      35.00000000
  17 1 40       0.92320508    1728.00000000      35.00000000
  18 1 40       0.92320508    1728.00000000      35.00000000
  19 1 40       0.92320508    1728.00000000      35.00000000
  20 1 40       0.92320508    1728.00000000      35.00000000
END period  16

BEGIN period  17
  2 1 40       0.90867067     299.65828809      35.00000000
  3 1 40       0.90867067    1728.00000000      35.00000000
  4 1 40       0.90867067    1728.00000000      35.00000000
  5 1 40       0.90867067    1728.00000000      35.00000000
  6 1 40       0.90867067    1728.00000000      35.00000000
  7 1 40       0.90867067    1728.00000000      35.00000000
  8 1 40       0.90867067    1728.00000000      35.00000000
  9 1 40       0.90867067    1728.00000000      35.00000000
  10 1 40       0.90867067    1728.00000000      35.00000000
  11 1 40       0.90867067    1728.00000000      35.00000000
  12 1 40       0.90867067    1728.00000000      35.00000000
  13 1 40       0.90867067    1728.00000000      35.00000000
  14 1 40       0.90867067    1728.00000000      35.00000000
  15 1 40       0.90867067    1728.00000000      35.00000000
  16 1 40       0.90867067    1728.00000000      35.00000000
  17 1 40       0.90867067    1728.00000000      35.00000000
  18 1 40       0.90867067    1728.00000000      35.00000000
  19 1 40       0.90867067    1728.00000000      35.00000000
  20 1 40       0.90867067    1728.00000000      35.00000000
END period  17

BEGIN period  18
  3 1 40       0.89142136    1431.52207156      35.00000000
  4 1 40       0.89142136    1728.00000000      35.00000000
  5 1 40       0.89142136    1728.00000000      35.00000000
  6 1 40       0.89142136    1728.00000000      35.00000000
  7 1 40       0.89142136    1728.00000000      35.00000000
  8 1 40       0.89142136    1728.00000000      35.00000000
  9 1 40       0.89142136    1728.00000000      35.00000000
  10 1 40       0.89142136    1728.00000000      35.00000000
  11 1 40       0.89142136    1728.00000000      35.00000000
  12 1 40       0.89142136    1728.00000000      35.00000000
  13 1 40       0.89142136    1728.00000000      35.00000000
  14 1 40       0.89142136    1728.00000000      35.00000000
  15 1 40       0.89142136    1728.00000000      35.00000000
  16 1 40       0.89142136    1728.00000000      35.00000000
  17 1 40       0.89142136    1728.00000000      35.00000000
  18 1 40       0.89142136    1728.00000000      35.00000000
  19 1 40       0.89142136    1728.00000000      35.00000000
  20 1 40       0.89142136    1728.00000000      35.00000000
END period  18

BEGIN period  19
  3 1 40       0.87175229     751.75899731      35.00000000
  4 1 40       0.87175229    1728.00000000      35.00000000
  5 1 40       0.87175229    1728.00000000      35.00000000
  6 1 40       0.87175229    1728.00000000      35.00000000
  7 1 40       0.87175229    1728.00000000      35.00000000
  8 1 40       0.87175229    1728.00000000      35.00000000
  9 1 40       0.87175229    1728.00000000      35.00000000
  10 1 40       0.87175229    1728.00000000      35.00000000
  11 1 40       0.87175229    1728.00000000      35.00000000
  12 1 40       0.87175229    1728.00000000      35.00000000
  13 1 40       0.87175229    1728.00000000      35.00000000
  14 1 40       0.87175229    1728.00000000      35.00000000
  15 1 40       0.87175229    1728.00000000      35.00000000
  16 1 40       0.87175229    1728.00000000      35.00000000
  17 1 40       0.87175229    1728.00000000      35.00000000
  18 1 40       0.87175229    1728.00000000      35.00000000
  19 1 40       0.87175229    1728.00000000      35.00000000
  20 1 40       0.87175229    1728.00000000      35.00000000
END period  19

BEGIN period  20
  3 1 40       0.85000000  3.83693077E-12      35.00000000
  4 1 40       0.85000000    1728.00000000      35.00000000
  5 1 40       0.85000000    1728.00000000      35.00000000
  6 1 40       0.85000000    1728.00000000      35.00000000
  7 1 40       0.85000000    1728.00000000      35.00000000
  8 1 40       0.85000000    1728.00000000      35.00000000
  9 1 40       0.85000000    1728.00000000      35.00000000
  10 1 40       0.85000000    1728.00000000      35.00000000
  11 1 40       0.85000000    1728.00000000      35.00000000
  12 1 40       0.85000000    1728.00000000      35.00000000
  13 1 40       0.85000000    1728.00000000      35.00000000
  14 1 40       0.85000000    1728.00000000      35.00000000
  15 1 40       0.85000000    1728.00000000      35.00000000
  16 1 40       0.85000000    1728.00000000      35.00000000
  17 1 40       0.85000000    1728.00000000      35.00000000
  18 1 40       0.85000000    1728.00000000      35.00000000
  19 1 40       0.85000000    1728.00000000      35.00000000
  20 1 40       0.85000000    1728.00000000      35.00000000
END period  20

BEGIN period  21
  4 1 40       0.82653669     917.10788451      35.00000000
  5 1 40       0.82653669    1728.00000000      35.00000000
  6 1 40       0.82653669    1728.00000000      35.00000000
  7 1 40       0.82653669    1728.00000000      35.00000000
  8 1 40       0.82653669    1728.00000000      35.00000000
  9 1 40       0.82653669    1728.00000000      35.00000000
  10 1 40       0.82653669    1728.00000000      35.00000000
  11 1 40       0.82653669    1728.00000000      35.00000000
  12 1 40       0.82653669    1728.00000000      35.00000000
  13 1 40       0.82653669    1728.00000000      35.00000000
  14 1 40       0.82653669    1728.00000000      35.00000000
  15 1 40       0.82653669    1728.00000000      35.00000000
  16 1 40       0.82653669    1728.00000000      35.00000000
  17 1 40       0.82653669    1728.00000000      35.00000000
  18 1 40       0.82653669    1728.00000000      35.00000000
  19 1 40       0.82653669    1728.00000000      35.00000000
  20 1 40       0.82653669    1728.00000000      35.00000000
END period  21

BEGIN period  22
  4 1 40       0.80176381      60.95723975      35.00000000
  5 1 40       0.80176381    1728.00000000      35.00000000
  6 1 40       0.80176381    1728.00000000      35.00000000
  7 1 40       0.80176381    1728.00000000      35.00000000
  8 1 40       0.80176381    1728.00000000      35.00000000
  9 1 40       0.80176381    1728.00000000      35.00000000
  10 1 40       0.80176381    1728.00000000      35.00000000
  11 1 40       0.80176381    1728.00000000      35.00000000
  12 1 40       0.80176381    1728.00000000      35.00000000
  13 1 40       0.80176381    1728.00000000      35.00000000
  14 1 40       0.80176381    1728.00000000      35.00000000
  15 1 40       0.80176381    1728.00000000      35.00000000
  16 1 40       0.80176381    1728.00000000      35.00000000
  17 1 40       0.80176381    1728.00000000      35.00000000
  18 1 40       0.80176381    1728.00000000      35.00000000
  19 1 40       0.80176381    1728.00000000      35.00000000
  20 1 40       0.80176381    1728.00000000      35.00000000
END period  22

BEGIN period  23
  5 1 40       0.77610524     902.19704062      35.00000000
  6 1 40       0.77610524    1728.00000000      35.00000000
  7 1 40       0.77610524    1728.00000000      35.00000000
  8 1 40       0.77610524    1728.00000000      35.00000000
  9 1 40       0.77610524    1728.00000000      35.00000000
  10 1 40       0.77610524    1728.00000000      35.00000000
  11 1 40       0.77610524    1728.00000000      35.00000000
  12 1 40       0.77610524    1728.00000000      35.00000000
  13 1 40       0.77610524    1728.00000000      35.00000000
  14 1 40       0.77610524    1728.00000000      35.00000000
  15 1 40       0.77610524    1728.00000000      35.00000000
  16 1 40       0.77610524    1728.00000000      35.00000000
  17 1 40       0.77610524    1728.00000000      35.00000000
  18 1 40       0.77610524    1728.00000000      35.00000000
  19 1 40       0.77610524    1728.00000000      35.00000000
  20 1 40       0.77610524    1728.00000000      35.00000000
END period  23

BEGIN period  24
  5 1 40       0.75000000  3.83693077E-12      35.00000000
  6 1 40       0.75000000    1728.00000000      35.00000000
  7 1 40       0.75000000    1728.00000000      35.00000000
  8 1 40       0.75000000    1728.00000000      35.00000000
  9 1 40       0.75000000    1728.00000000      35.00000000
  10 1 40       0.75000000    1728.00000000      35.00000000
  11 1 40       0.75000000    1728.00000000      35.00000000
  12 1 40       0.75000000    1728.00000000      35.00000000
  13 1 40       0.75000000    1728.00000000      35.00000000
  14 1 40       0.75000000    1728.00000000      35.00000000
  15 1 40       0.75000000    1728.00000000      35.00000000
  16 1 40       0.75000000    1728.00000000      35.00000000
  17 1 40       0.75000000    1728.00000000      35.00000000
  18 1 40       0.75000000    1728.00000000      35.00000000
  19 1 40       0.75000000    1728.00000000      35.00000000
  20 1 40       0.75000000    1728.00000000      35.00000000
END period  24

BEGIN period  25
  6 1 40       0.72389476     825.80295938      35.00000000
  7 1 40       0.72389476    1728.00000000      35.00000000
  8 1 40       0.72389476    1728.00000000      35.00000000
  9 1 40       0.72389476    1728.00000000      35.00000000
  10 1 40       0.72389476    1728.00000000      35.00000000
  11 1 40       0.72389476    1728.00000000      35.00000000
  12 1 40       0.72389476    1728.00000000      35.00000000
  13 1 40       0.72389476    1728.00000000      35.00000000
  14 1 40       0.72389476    1728.00000000      35.00000000
  15 1 40       0.72389476    1728.00000000      35.00000000
  16 1 40       0.72389476    1728.00000000      35.00000000
  17 1 40       0.72389476    1728.00000000      35.00000000
  18 1 40       0.72389476    1728.00000000      35.00000000
  19 1 40       0.72389476    1728.00000000      35.00000000
  20 1 40       0.72389476    1728.00000000      35.00000000
END period  25

BEGIN period  26
  7 1 40       0.69823619    1667.04276025      35.00000000
  8 1 40       0.69823619    1728.00000000      35.00000000
  9 1 40       0.69823619    1728.00000000      35.00000000
  10 1 40       0.69823619    1728.00000000      35.00000000
  11 1 40       0.69823619    1728.00000000      35.00000000
  12 1 40       0.69823619    1728.00000000      35.00000000
  13 1 40       0.69823619    1728.00000000      35.00000000
  14 1 40       0.69823619    1728.00000000      35.00000000
  15 1 40       0.69823619    1728.00000000      35.00000000
  16 1 40       0.69823619    1728.00000000      35.00000000
  17 1 40       0.69823619    1728.00000000      35.00000000
  18 1 40       0.69823619    1728.00000000      35.00000000
  19 1 40       0.69823619    1728.00000000      35.00000000
  20 1 40       0.69823619    1728.00000000      35.00000000
END period  26

BEGIN period  27
  7 1 40       0.67346331     810.89211549      35.00000000
  8 1 40       0.67346331    1728.00000000      35.00000000
  9 1 40       0.67346331    1728.00000000      35.00000000
  10 1 40       0.67346331    1728.00000000      35.00000000
  11 1 40       0.67346331    1728.00000000      35.00000000
  12 1 40       0.67346331    1728.00000000      35.00000000
  13 1 40       0.67346331    1728.00000000      35.00000000
  14 1 40       0.67346331    1728.00000000      35.00000000
  15 1 40       0.67346331    1728.00000000      35.00000000
  16 1 40       0.67346331    1728.00000000      35.00000000
  17 1 40       0.67346331    1728.00000000      35.00000000
  18 1 40       0.67346331    1728.00000000      35.00000000
  19 1 40       0.67346331    1728.00000000      35.00000000
  20 1 40       0.67346331    1728.00000000      35.00000000
END period  27

BEGIN period  28
  8 1 40       0.65000000    1728.00000000      35.00000000
  9 1 40       0.65000000    1728.00000000      35.00000000
  10 1 40       0.65000000    1728.00000000      35.00000000