BEGIN options
END options

BEGIN dimensions
  NLAY  20
  NROW  1
  NCOL  40
END dimensions

BEGIN griddata
  delr
    CONSTANT       0.05000000
  delc
    CONSTANT       1.00000000
  top
    CONSTANT       1.00000000
  botm  LAYERED
    CONSTANT       0.95000000
    CONSTANT       0.90000000
    CONSTANT       0.85000000
    CONSTANT       0.80000000
    CONSTANT       0.75000000
    CONSTANT       0.70000000
    CONSTANT       0.65000000
    CONSTANT       0.60000000
    CONSTANT       0.55000000
    CONSTANT       0.50000000
    CONSTANT       0.45000000
    CONSTANT       0.40000000
    CONSTANT       0.35000000
    CONSTANT       0.30000000
    CONSTANT       0.25000000
    CONSTANT       0.20000000
    CONSTANT       0.15000000
    CONSTANT       0.10000000
    CONSTANT       0.05000000
    CONSTANT       0.00000000
END griddata

