BEGIN options
  auxiliary  CONCENTRATION
  PRINT_INPUT
  PRINT_FLOWS
END options

BEGIN dimensions
  MAXBOUND  20
END dimensions

BEGIN period  1
  1 1 1       0.28512000       0.00000000
  2 1 1       0.28512000       0.00000000
  3 1 1       0.28512000       0.00000000
  4 1 1       0.28512000       0.00000000
  5 1 1       0.28512000       0.00000000
  6 1 1       0.28512000       0.00000000
  7 1 1       0.28512000       0.00000000
  8 1 1       0.28512000       0.00000000
  9 1 1       0.28512000       0.00000000
  10 1 1       0.28512000       0.00000000
  11 1 1       0.28512000       0.00000000
  12 1 1       0.28512000       0.00000000
  13 1 1       0.28512000       0.00000000
  14 1 1       0.28512000       0.00000000
  15 1 1       0.28512000       0.00000000
  16 1 1       0.28512000       0.00000000
  17 1 1       0.28512000       0.00000000
  18 1 1       0.28512000       0.00000000
  19 1 1       0.28512000       0.00000000
  20 1 1       0.28512000       0.00000000
END period  1

