BEGIN options
  XT3D
END options

BEGIN griddata
  diffc
    CONSTANT  1.00000000E-06
  alh
    CONSTANT       0.01000000
  ath1
    CONSTANT       0.00100000
END griddata

