BEGIN options
  BUDGET  FILEOUT  gwt_henry-nr.cbc
  CONCENTRATION  FILEOUT  gwt_henry-nr.ucn
  CONCENTRATION  PRINT_FORMAT  COLUMNS  10  WIDTH  15  DIGITS  6  GENERAL
END options

BEGIN period  1
  SAVE  CONCENTRATION  ALL
  PRINT  CONCENTRATION  LAST
  PRINT  BUDGET  LAST
END period  1

