BEGIN options
  TIME_UNITS  days
END options

BEGIN dimensions
  NPER  480
END dimensions

BEGIN perioddata
       0.02083333  1       1.00000000
       0.02083333  1       1.00000000
       0.02083333  1       1.00000000
       0.02083333  1       1.00000000
       0.02083333  1       1.00000000
       0.02083333  1       1.00000000
       0.02083333  1       1.00000000
       0.02083333  1       1.00000000
       0.02083333  1       1.00000000
       0.02083333  1       1.00000000
       0.02083333  1       1.00000000
       0.02083333  1       1.00000000
       0.02083333  1       1.00000000
       0.02083333  1       1.00000000
       0.02083333  1       1.00000000
       0.02083333  1       1.00000000
       0.02083333  1       1.00000000
       0.02083333  1       1.00000000
       0.02083333  1       1.00000000
       0.02083333  1       1.00000000
       0.02083333  1       1.00000000
       0.02083333  1       1.00000000
       0.02083333  1       1.00000000
       0.02083333  1       1.00000000
       0.02083333  1       1.00000000
       0.02083333  1       1.00000000
       0.02083333  1       1.00000000
       0.02083333  1       1.00000000
       0.02083333  1       1.00000000
       0.02083333  1       1.00000000
       0.02083333  1       1.00000000
       0.02083333  1       1.00000000
       0.02083333  1       1.00000000
       0.02083333  1       1.00000000
       0.02083333  1       1.00000000
       0.02083333  1       1.00000000
       0.02083333  1       1.00000000
       0.02083333  1       1.00000000
       0.02083333  1       1.00000000
       0.02083333  1       1.00000000
       0.02083333  1       1.00000000
       0.02083333  1       1.00000000
       0.02083333  1       1.00000000
       0.02083333  1       1.00000000
       0.02083333  1       1.00000000
       0.02083333  1       1.00000000
       0.02083333  1       1.00000000
       0.02083333  1       1.00000000
       0.02083333  1       1.00000000
       0.02083333  1       1.00000000
       0.02083333  1       1.00000000
       0.02083333  1       1.00000000
       0.02083333  1       1.00000000
       0.02083333  1       1.00000000
       0.02083333  1       1.00000000
       0.02083333  1       1.00000000
       0.02083333  1       1.00000000
       0.02083333  1       1.00000000
       0.02083333  1       1.00000000
       0.02083333  1       1.00000000
       0.02083333  1       1.00000000
       0.02083333  1       1.00000000
       0.02083333  1       1.00000000
       0.02083333  1       1.00000000
       0.02083333  1       1.00000000
       0.02083333  1       1.00000000
       0.02083333  1       1.00000000
       0.02083333  1       1.00000000
       0.02083333  1       1.00000000
       0.02083333  1       1.00000000
       0.02083333  1       1.00000000
       0.02083333  1       1.00000000
       0.02083333  1       1.00000000
       0.02083333  1       1.00000000
       0.02083333  1       1.00000000
       0.02083333  1       1.00000000
       0.02083333  1       1.00000000
       0.02083333  1       1.00000000
       0.02083333  1       1.00000000
       0.02083333  1       1.00000000
       0.02083333  1       1.00000000
       0.02083333  1       1.00000000
       0.02083333  1       1.00000000
       0.02083333  1       1.00000000
       0.02083333  1       1.00000000
       0.02083333  1       1.00000000
       0.02083333  1       1.00000000
       0.02083333  1       1.00000000
       0.02083333  1       1.00000000
       0.02083333  1       1.00000000
       0.02083333  1       1.00000000
       0.02083333  1       1.00000000
       0.02083333  1       1.00000000
       0.02083333  1       1.00000000
       0.02083333  1       1.00000000
       0.02083333  1       1.00000000
       0.02083333  1       1.00000000
       0.02083333  1       1.00000000
       0.02083333  1       1.00000000
       0.02083333  1       1.00000000
       0.02083333  1       1.00000000
       0.02083333  1       1.00000000
       0.02083333  1       1.00000000
       0.02083333  1       1.00000000
       0.02083333  1       1.00000000
       0.02083333  1       1.00000000
       0.02083333  1       1.00000000
       0.02083333  1       1.00000000
       0.02083333  1       1.00000000
       0.02083333  1       1.00000000
       0.02083333  1       1.00000000
       0.02083333  1       1.00000000
       0.02083333  1       1.00000000
       0.02083333  1       1.00000000
       0.02083333  1       1.00000000
       0.02083333  1       1.00000000
       0.02083333  1       1.00000000
       0.02083333  1       1.00000000
       0.02083333  1       1.00000000
       0.02083333  1       1.00000000
       0.02083333  1       1.00000000
       0.02083333  1       1.00000000
       0.02083333  1       1.00000000
       0.02083333  1       1.00000000
       0.02083333  1       1.00000000
       0.02083333  1       1.00000000
       0.02083333  1       1.00000000
       0.02083333  1       1.00000000
       0.02083333  1       1.00000000
       0.02083333  1       1.00000000
       0.02083333  1       1.00000000
       0.02083333  1       1.00000000
       0.02083333  1       1.00000000
       0.02083333  1       1.00000000
       0.02083333  1       1.00000000
       0.02083333  1       1.00000000
       0.02083333  1       1.00000000
       0.02083333  1       1.00000000
       0.02083333  1       1.00000000
       0.02083333  1       1.00000000
       0.02083333  1       1.00000000
       0.02083333  1       1.00000000
       0.02083333  1       1.00000000
       0.02083333  1       1.00000000
       0.02083333  1       1.00000000
       0.02083333  1       1.00000000
       0.02083333  1       1.00000000
       0.02083333  1       1.00000000
       0.02083333  1       1.00000000
       0.02083333  1       1.00000000
       0.02083333  1       1.00000000
       0.02083333  1       1.00000000
       0.02083333  1       1.00000000
       0.02083333  1       1.00000000
       0.02083333  1       1.00000000
       0.02083333  1       1.00000000
       0.02083333  1       1.00000000
       0.02083333  1       1.00000000
       0.02083333  1       1.00000000
       0.02083333  1       1.00000000
       0.02083333  1       1.00000000
       0.02083333  1       1.00000000
       0.02083333  1       1.00000000
       0.02083333  1       1.00000000
       0.02083333  1       1.00000000
       0.02083333  1       1.00000000
       0.02083333  1       1.00000000
       0.02083333  1       1.00000000
       0.02083333  1       1.00000000
       0.02083333  1       1.00000000
       0.02083333  1       1.00000000
       0.02083333  1       1.00000000
       0.02083333  1       1.00000000
       0.02083333  1       1.00000000
       0.02083333  1       1.00000000
       0.02083333  1       1.00000000
       0.02083333  1       1.00000000
       0.02083333  1       1.00000000
       0.02083333  1       1.00000000
       0.02083333  1       1.00000000
       0.02083333  1       1.00000000
       0.02083333  1       1.00000000
       0.02083333  1       1.00000000
       0.02083333  1       1.00000000
       0.02083333  1       1.00000000
       0.02083333  1       1.00000000
       0.02083333  1       1.00000000
       0.02083333  1       1.00000000
       0.02083333  1       1.00000000
       0.02083333  1       1.00000000
       0.02083333  1       1.00000000
       0.02083333  1       1.00000000
       0.02083333  1       1.00000000
       0.02083333  1       1.00000000
       0.02083333  1       1.00000000
       0.02083333  1       1.00000000
       0.02083333  1       1.00000000
       0.02083333  1       1.00000000
       0.02083333  1       1.00000000
       0.02083333  1       1.00000000
       0.02083333  1       1.00000000
       0.02083333  1       1.00000000
       0.02083333  1       1.00000000
       0.02083333  1       1.00000000
       0.02083333  1       1.00000000
       0.02083333  1       1.00000000
       0.02083333  1       1.00000000
       0.02083333  1       1.00000000
       0.02083333  1       1.00000000
       0.02083333  1       1.00000000
       0.02083333  1       1.00000000
       0.02083333  1       1.00000000
       0.02083333  1       1.00000000
       0.02083333  1       1.00000000
       0.02083333  1       1.00000000
       0.02083333  1       1.00000000
       0.02083333  1       1.00000000
       0.02083333  1       1.00000000
       0.02083333  1       1.00000000
       0.02083333  1       1.00000000
       0.02083333  1       1.00000000
       0.02083333  1       1.00000000
       0.02083333  1       1.00000000
       0.02083333  1       1.00000000
       0.02083333  1       1.00000000
       0.02083333  1       1.00000000
       0.02083333  1       1.00000000
       0.02083333  1       1.00000000
       0.02083333  1       1.00000000
       0.02083333  1       1.00000000
       0.02083333  1       1.00000000
       0.02083333  1       1.00000000
       0.02083333  1       1.00000000
       0.02083333  1       1.00000000
       0.02083333  1       1.00000000
       0.02083333  1       1.00000000
       0.02083333  1       1.00000000
       0.02083333  1       1.00000000
       0.02083333  1       1.00000000
       0.02083333  1       1.00000000
       0.02083333  1       1.00000000
       0.02083333  1       1.00000000
       0.02083333  1       1.00000000
       0.02083333  1       1.00000000
       0.02083333  1       1.00000000
       0.02083333  1       1.00000000
       0.02083333  1       1.00000000
       0.02083333  1       1.00000000
       0.02083333  1       1.00000000
       0.02083333  1       1.00000000
       0.02083333  1       1.00000000
       0.02083333  1       1.00000000
       0.02083333  1       1.00000000
       0.02083333  1       1.00000000
       0.02083333  1       1.00000000
       0.02083333  1       1.00000000
       0.02083333  1       1.00000000
       0.02083333  1       1.00000000
       0.02083333  1       1.00000000
       0.02083333  1       1.00000000
       0.02083333  1       1.00000000
       0.02083333  1       1.00000000
       0.02083333  1       1.00000000
       0.02083333  1       1.00000000
       0.02083333  1       1.00000000
       0.02083333  1       1.00000000
       0.02083333  1       1.00000000
       0.02083333  1       1.00000000
       0.02083333  1       1.00000000
       0.02083333  1       1.00000000
       0.02083333  1       1.00000000
       0.02083333  1       1.00000000
       0.02083333  1       1.00000000
       0.02083333  1       1.00000000
       0.02083333  1       1.00000000
       0.02083333  1       1.00000000
       0.02083333  1       1.00000000
       0.02083333  1       1.00000000
       0.02083333  1       1.00000000
       0.02083333  1       1.00000000
       0.02083333  1       1.00000000
       0.02083333  1       1.00000000
       0.02083333  1       1.00000000
       0.02083333  1       1.00000000
       0.02083333  1       1.00000000
       0.02083333  1       1.00000000
       0.02083333  1       1.00000000
       0.02083333  1       1.00000000
       0.02083333  1       1.00000000
       0.02083333  1       1.00000000
       0.02083333  1       1.00000000
       0.02083333  1       1.00000000
       0.02083333  1       1.00000000
       0.02083333  1       1.00000000
       0.02083333  1       1.00000000
       0.02083333  1       1.00000000
       0.02083333  1       1.00000000
       0.02083333  1       1.00000000
       0.02083333  1       1.00000000
       0.02083333  1       1.00000000
       0.02083333  1       1.00000000
       0.02083333  1       1.00000000
       0.02083333  1       1.00000000
       0.02083333  1       1.00000000
       0.02083333  1       1.00000000
       0.02083333  1       1.00000000
       0.02083333  1       1.00000000
       0.02083333  1       1.00000000
       0.02083333  1       1.00000000
       0.02083333  1       1.00000000
       0.02083333  1       1.00000000
       0.02083333  1       1.00000000
       0.02083333  1       1.00000000
       0.02083333  1       1.00000000
       0.02083333  1       1.00000000
       0.02083333  1       1.00000000
       0.02083333  1       1.00000000
       0.02083333  1       1.00000000
       0.02083333  1       1.00000000
       0.02083333  1       1.00000000
       0.02083333  1       1.00000000
       0.02083333  1       1.00000000
       0.02083333  1       1.00000000
       0.02083333  1       1.00000000
       0.02083333  1       1.00000000
       0.02083333  1       1.00000000
       0.02083333  1       1.00000000
       0.02083333  1       1.00000000
       0.02083333  1       1.00000000
       0.02083333  1       1.00000000
       0.02083333  1       1.00000000
       0.02083333  1       1.00000000
       0.02083333  1       1.00000000
       0.02083333  1       1.00000000
       0.02083333  1       1.00000000
       0.02083333  1       1.00000000
       0.02083333  1       1.00000000
       0.02083333  1       1.00000000
       0.02083333  1       1.00000000
       0.02083333  1       1.00000000
       0.02083333  1       1.00000000
       0.02083333  1       1.00000000
       0.02083333  1       1.00000000
       0.02083333  1       1.00000000
       0.02083333  1       1.00000000
       0.02083333  1       1.00000000
       0.02083333  1       1.00000000
       0.02083333  1       1.00000000
       0.02083333  1       1.00000000
       0.02083333  1       1.00000000
       0.02083333  1       1.00000000
       0.02083333  1       1.00000000
       0.02083333  1       1.00000000
       0.02083333  1       1.00000000
       0.02083333  1       1.00000000
       0.02083333  1       1.00000000
       0.02083333  1       1.00000000
       0.02083333  1       1.00000000
       0.02083333  1       1.00000000
       0.02083333  1       1.00000000
       0.02083333  1       1.00000000
       0.02083333  1       1.00000000
       0.02083333  1       1.00000000
       0.02083333  1       1.00000000
       0.02083333  1       1.00000000
       0.02083333  1       1.00000000
       0.02083333  1       1.00000000
       0.02083333  1       1.00000000
       0.02083333  1       1.00000000
       0.02083333  1       1.00000000
       0.02083333  1       1.00000000
       0.02083333  1       1.00000000
       0.02083333  1       1.00000000
       0.02083333  1       1.00000000
       0.02083333  1       1.00000000
       0.02083333  1       1.00000000
       0.02083333  1       1.00000000
       0.02083333  1       1.00000000
       0.02083333  1       1.00000000
       0.02083333  1       1.00000000
       0.02083333  1       1.00000000
       0.02083333  1       1.00000000
       0.02083333  1       1.00000000
       0.02083333  1       1.00000000
       0.02083333  1       1.00000000
       0.02083333  1       1.00000000
       0.02083333  1       1.00000000
       0.02083333  1       1.00000000
       0.02083333  1       1.00000000
       0.02083333  1       1.00000000
       0.02083333  1       1.00000000
       0.02083333  1       1.00000000
       0.02083333  1       1.00000000
       0.02083333  1       1.00000000
       0.02083333  1       1.00000000
       0.02083333  1       1.00000000
       0.02083333  1       1.00000000
       0.02083333  1       1.00000000
       0.02083333  1       1.00000000
       0.02083333  1       1.00000000
       0.02083333  1       1.00000000
       0.02083333  1       1.00000000
       0.02083333  1       1.00000000
       0.02083333  1       1.00000000
       0.02083333  1       1.00000000
       0.02083333  1       1.00000000
       0.02083333  1       1.00000000
       0.02083333  1       1.00000000
       0.02083333  1       1.00000000
       0.02083333  1       1.00000000
       0.02083333  1       1.00000000
       0.02083333  1       1.00000000
       0.02083333  1       1.00000000
       0.02083333  1       1.00000000
       0.02083333  1       1.00000000
       0.02083333  1       1.00000000
       0.02083333  1       1.00000000
       0.02083333  1       1.00000000
       0.02083333  1       1.00000000
       0.02083333  1       1.00000000
       0.02083333  1       1.00000000
       0.02083333  1       1.00000000
       0.02083333  1       1.00000000
       0.02083333  1       1.00000000
       0.02083333  1       1.00000000
       0.02083333  1       1.00000000
       0.02083333  1       1.00000000
       0.02083333  1       1.00000000
       0.02083333  1       1.00000000
       0.02083333  1       1.00000000
       0.02083333  1       1.00000000
       0.02083333  1       1.00000000
       0.02083333  1       1.00000000
       0.02083333  1       1.00000000
       0.02083333  1       1.00000000
       0.02083333  1       1.00000000
       0.02083333  1       1.00000000
       0.02083333  1       1.00000000
       0.02083333  1       1.00000000
       0.02083333  1       1.00000000
       0.02083333  1       1.00000000
       0.02083333  1       1.00000000
       0.02083333  1       1.00000000
       0.02083333  1       1.00000000
       0.02083333  1       1.00000000
       0.02083333  1       1.00000000
       0.02083333  1       1.00000000
       0.02083333  1       1.00000000
       0.02083333  1       1.00000000
       0.02083333  1       1.00000000
       0.02083333  1       1.00000000
       0.02083333  1       1.00000000
       0.02083333  1       1.00000000
       0.02083333  1       1.00000000
       0.02083333  1       1.00000000
       0.02083333  1       1.00000000
       0.02083333  1       1.00000000
       0.02083333  1       1.00000000
       0.02083333  1       1.00000000
       0.02083333  1       1.00000000
       0.02083333  1       1.00000000
       0.02083333  1       1.00000000
       0.02083333  1       1.00000000
       0.02083333  1       1.00000000
       0.02083333  1       1.00000000
       0.02083333  1       1.00000000
       0.02083333  1       1.00000000
       0.02083333  1       1.00000000
       0.02083333  1       1.00000000
       0.02083333  1       1.00000000
       0.02083333  1       1.00000000
       0.02083333  1       1.00000000
       0.02083333  1       1.00000000
       0.02083333  1       1.00000000
       0.02083333  1       1.00000000
       0.02083333  1       1.00000000
       0.02083333  1       1.00000000
       0.02083333  1       1.00000000
       0.02083333  1       1.00000000
       0.02083333  1       1.00000000
END perioddata

