BEGIN OPTIONS
END OPTIONS

BEGIN GRIDDATA
  ICONVERT
    CONSTANT 1
  SS
    CONSTANT 1.E-5
  SY
    CONSTANT 0.05
END GRIDDATA

BEGIN PERIOD 1
  STEADY-STATE
END PERIOD

BEGIN PERIOD 2
  TRANSIENT
END PERIOD



