BEGIN OPTIONS
  DIGITS 10
  PRINT_INPUT
END OPTIONS

BEGIN CONTINUOUS FILEOUT ps1.obs.heads.csv
  # obsname obstype ID
  L1head HEAD 1 1 20
  L2head HEAD 2 1 20
  L3head HEAD 3 1 20
END CONTINUOUS

BEGIN CONTINUOUS FILEOUT ps1.obs.flows.csv
# obsname obstype ID ID1
  LEFT FLOW-JA-FACE 1 1 20 1 1 19
  DOWN FLOW-JA-FACE 1 1 20 2 1 20
END CONTINUOUS
