BEGIN OPTIONS
  SAVE_FLOWS
  XT3D
END OPTIONS

BEGIN GRIDDATA
  ICELLTYPE
    CONSTANT 0
  K
    CONSTANT 1.
  K22
    CONSTANT 0.1
  K33
    CONSTANT 1.
  ANGLE1
    CONSTANT 45.
END GRIDDATA
