BEGIN OPTIONS
END OPTIONS

BEGIN PACKAGES
  DISV6         flow.disv
  IC6           flow.ic
  CHD6          flow_unif_grad.chd
  NPF6          flow.npf
  OC6           flow.oc
END PACKAGES

