begin options
  PRINT_INPUT
  PRINT_FLOWS
  SAVE_FLOWS
end options

begin dimensions
  MAXBOUND 24
end dimensions

begin period 1
1  1 1.
1  8 1.
1 15 1.
1 19 1.
1 23 1.
1 27 1.
1 34 1.

1  7 0.
1 14 0.
1 18 0.
1 22 0.
1 26 0.
1 33 0.
1 40 0.

1  2 0.8333333333
1  3 0.6666666667
1  4 0.5000000000
1  5 0.3333333333
1  6 0.1666666667

1 35 0.8333333333
1 36 0.6666666667
1 37 0.5000000000
1 38 0.3333333333
1 39 0.1666666667
end period
